Input Parameters:
   integrator                     = bd
   tinit                          = 0
   dt                             = 0.1
   nsteps                         = 10000
   init-step                      = 0
   simulation-part                = 1
   comm-mode                      = Linear
   nstcomm                        = 100
   bd-fric                        = 18939.4
   bd-gamma                       = 0
   bd-z0                          = 0
   ld-seed                        = 987
   emtol                          = 10
   emstep                         = 0.01
   niter                          = 20
   fcstep                         = 0
   nstcgsteep                     = 1000
   nbfgscorr                      = 10
   rtpi                           = 0.05
   nstxout                        = 0
   nstvout                        = 0
   nstfout                        = 0
   nstlog                         = 100
   nstcalcenergy                  = 100
   nstenergy                      = 1000
   nstxout-compressed             = 100
   compressed-x-precision         = 1000
   cutoff-scheme                  = Verlet
   nstlist                        = 10
   pbc                            = xy
   periodic-molecules             = false
   verlet-buffer-tolerance        = 0.005
   rlist                          = 10
   coulombtype                    = Cut-off
   coulomb-modifier               = Potential-shift
   rcoulomb-switch                = 0
   rcoulomb                       = 10
   epsilon-r                      = 1
   epsilon-rf                     = inf
   vdw-type                       = Cut-off
   vdw-modifier                   = Potential-shift
   rvdw-switch                    = 0
   rvdw                           = 10
   DispCorr                       = No
   table-extension                = 1
   fourierspacing                 = 0.12
   fourier-nx                     = 0
   fourier-ny                     = 0
   fourier-nz                     = 0
   pme-order                      = 4
   ewald-rtol                     = 1e-05
   ewald-rtol-lj                  = 0.001
   lj-pme-comb-rule               = Geometric
   ewald-geometry                 = 0
   epsilon-surface                = 0
   tcoupl                         = No
   nsttcouple                     = -1
   nh-chain-length                = 0
   print-nose-hoover-chain-variables = false
   pcoupl                         = No
   pcoupltype                     = Isotropic
   nstpcouple                     = -1
   tau-p                          = 1
   compressibility (3x3):
      compressibility[    0]={ 0.00000e+00,  0.00000e+00,  0.00000e+00}
      compressibility[    1]={ 0.00000e+00,  0.00000e+00,  0.00000e+00}
      compressibility[    2]={ 0.00000e+00,  0.00000e+00,  0.00000e+00}
   ref-p (3x3):
      ref-p[    0]={ 0.00000e+00,  0.00000e+00,  0.00000e+00}
      ref-p[    1]={ 0.00000e+00,  0.00000e+00,  0.00000e+00}
      ref-p[    2]={ 0.00000e+00,  0.00000e+00,  0.00000e+00}
   refcoord-scaling               = No
   posres-com (3):
      posres-com[0]= 0.00000e+00
      posres-com[1]= 0.00000e+00
      posres-com[2]= 0.00000e+00
   posres-comB (3):
      posres-comB[0]= 0.00000e+00
      posres-comB[1]= 0.00000e+00
      posres-comB[2]= 0.00000e+00
   QMMM                           = false
   QMconstraints                  = 0
   QMMMscheme                     = 0
   MMChargeScaleFactor            = 1
qm-opts:
   ngQM                           = 0
   constraint-algorithm           = Lincs
   continuation                   = false
   Shake-SOR                      = false
   shake-tol                      = 0.0001
   lincs-order                    = 4
   lincs-iter                     = 1
   lincs-warnangle                = 30
   nwall                          = 2
   wall-type                      = 9-3
   wall-r-linpot                  = 0.5
   wall-atomtype[0]               = 0
   wall-atomtype[1]               = 0
   wall-density[0]                = 10
   wall-density[1]                = 10
   wall-ewald-zfac                = 3
   pull                           = false
   awh                            = false
   rotation                       = false
   interactiveMD                  = false
   disre                          = No
   disre-weighting                = Conservative
   disre-mixed                    = false
   dr-fc                          = 1000
   dr-tau                         = 0
   nstdisreout                    = 100
   orire-fc                       = 0
   orire-tau                      = 0
   nstorireout                    = 100
   free-energy                    = no
   cos-acceleration               = 0
   deform (3x3):
      deform[    0]={-8.19505e-01,  0.00000e+00,  0.00000e+00}
      deform[    1]={ 0.00000e+00, -8.23741e-01,  0.00000e+00}
      deform[    2]={ 0.00000e+00,  0.00000e+00, -8.84326e-01}
   simulated-tempering            = false
   swapcoords                     = no
   userint1                       = 0
   userint2                       = 0
   userint3                       = 0
   userint4                       = 0
   userreal1                      = 0
   userreal2                      = 0
   userreal3                      = 0
   userreal4                      = 0
   applied-forces:
     electric-field:
       x:
         E0                       = 0
         omega                    = 0
         t0                       = 0
         sigma                    = 0
       y:
         E0                       = 0
         omega                    = 0
         t0                       = 0
         sigma                    = 0
       z:
         E0                       = 0
         omega                    = 0
         t0                       = 0
         sigma                    = 0
     density-guided-simulation:
       active                     = false
       group                      = protein
       similarity-measure         = inner-product
       atom-spreading-weight      = unity
       force-constant             = 1e+09
       gaussian-transform-spreading-width = 0.2
       gaussian-transform-spreading-range-in-multiples-of-width = 4
       reference-density-filename = reference.mrc
       nst                        = 1
       normalize-densities        = true
       adaptive-force-scaling     = false
       adaptive-force-scaling-time-constant = 4
grpopts:
   nrdf:       71998
   ref-t:         300
   tau-t:           1
annealing:          No
annealing-npoints:           0
   acc:	           0           0           0
   nfreeze:           N           N           N
   energygrp-flags[  0]: 0 0 0
   energygrp-flags[  1]: 0 0 0
   energygrp-flags[  2]: 0 0 0

Changing nstlist from 10 to 100, rlist from 10 to 10

Using 1 MPI thread

Non-default thread affinity set, disabling internal thread affinity

Using 4 OpenMP threads

System total charge: 0.000
Potential shift: LJ r^-12: -1.000e-12 r^-6: -1.000e-06, Coulomb -1e-01

Using SIMD 4x8 nonbonded short-range kernels

Using a 4x8 pair-list setup:
  updated every 100 steps, buffer 0.000 nm, rlist 10.000 nm
At tolerance 0.005 kJ/mol/ps per atom, equivalent classical 1x1 list would be:
  updated every 100 steps, buffer 0.000 nm, rlist 10.000 nm

Using geometric Lennard-Jones combination rule

Removing pbc first time
There are: 24000 Atoms
Center of mass motion removal mode is Linear
We have the following groups for center of mass motion removal:
  0:  System

Started mdrun on rank 0 Sun Jun 21 23:11:10 2020

           Step           Time
              0        0.00000

   Energies (kJ/mol)
     FENE Bonds       G96Angle        LJ (SR)   Coulomb (SR)      Potential
    1.22865e+07    1.27276e-10   -5.51705e+02    0.00000e+00    1.22860e+07
    Kinetic En.   Total Energy    Temperature Pressure (bar)
    4.48911e+04    1.23309e+07    1.49981e+02   -9.11920e-02

	<====  A V E R A G E S  ====>

	Statistics over 10001 steps using 101 frames

   Energies (kJ/mol)
     FENE Bonds       G96Angle        LJ (SR)   Coulomb (SR)      Potential
    7.35754e+06    1.77224e+04    9.42083e+05    0.00000e+00    8.31735e+06
    Kinetic En.   Total Energy    Temperature Pressure (bar)
    8.97372e+04    8.40708e+06    2.99811e+02    1.95097e-01

          Box-X          Box-Y          Box-Z
    7.09753e+02    7.11870e+02    7.42163e+02

   Total Virial (kJ/mol)
    2.96032e+05    1.36354e+04   -4.36682e+04
    1.36355e+04    2.69256e+05    4.42278e+04
   -4.36681e+04    4.42279e+04    6.50025e+05

   Pressure (bar)
    1.72714e-01    2.41772e-03   -7.31361e-03
    2.41766e-03    1.69860e-01    8.07954e-03
   -7.31362e-03    8.07950e-03    2.42716e-01

  Epot (kJ/mol)        Coul-SR          LJ-SR
      rest-rest    0.00000e+00    9.42651e+05
     rest-wall0    0.00000e+00   -4.61227e+02
     rest-wall1    0.00000e+00   -1.06774e+02
    wall0-wall0    0.00000e+00    0.00000e+00
    wall0-wall1    0.00000e+00    0.00000e+00
    wall1-wall1    0.00000e+00    0.00000e+00
